*SPEF "ieee 1481-1999"
*DESIGN "design_mux"
*DATE "11:11:11 Fri 11 11, 1111"
*VENDOR "OpenRCX"
*PROGRAM "Parallel Extraction"
*VERSION "1.0"
*DESIGN_FLOW "NAME_SCOPE LOCAL" "PIN_CAP NONE"
*DIVIDER /
*DELIMITER :
*BUS_DELIMITER []
*T_UNIT 1 NS
*C_UNIT 1 PF
*R_UNIT 1 OHM
*L_UNIT 1 HENRY

*NAME_MAP
*1 CSB
*2 RST
*3 SCK
*4 SDI
*7 mask_rev_in[0]
*8 mask_rev_in[1]
*9 mask_rev_in[2]
*10 mask_rev_in[3]
*11 out
*12 select
*13 trap
*14 AMUX2_3V\.I0
*15 AMUX2_3V\.I1
*16 _000_
*17 _001_
*18 _002_
*19 _003_
*20 _004_
*21 _005_
*22 _006_
*23 _007_
*24 _008_
*25 _009_
*26 _010_
*27 _011_
*28 _012_
*29 _013_
*30 _014_
*31 _015_
*32 _016_
*33 _017_
*34 _018_
*35 _019_
*36 _020_
*37 _021_
*38 _022_
*39 _023_
*40 _024_
*41 _025_
*42 _026_
*43 _027_
*44 _028_
*45 _029_
*46 _030_
*47 _031_
*48 _032_
*49 _033_
*50 _034_
*51 _035_
*52 _036_
*53 _037_
*54 _038_
*55 _039_
*56 _040_
*57 _041_
*58 _042_
*59 _043_
*60 _044_
*61 _045_
*62 _046_
*63 _047_
*64 _048_
*65 _049_
*66 _050_
*67 _051_
*68 _052_
*69 _053_
*70 _054_
*71 _055_
*72 _056_
*73 _057_
*74 _058_
*75 _059_
*76 _060_
*77 _061_
*78 _062_
*79 _063_
*80 _064_
*81 _065_
*82 _066_
*83 _067_
*84 _068_
*85 _069_
*86 _070_
*87 _071_
*88 _072_
*89 _073_
*90 _074_
*91 _075_
*92 _076_
*93 _077_
*94 _078_
*95 _079_
*96 _080_
*97 _081_
*98 _082_
*99 _083_
*100 _084_
*101 _085_
*102 _086_
*103 _087_
*104 _088_
*105 _089_
*106 _090_
*107 _091_
*108 _092_
*109 _093_
*110 _094_
*111 _095_
*112 _096_
*113 _097_
*114 _098_
*115 _099_
*116 _100_
*117 _101_
*118 _102_
*119 _103_
*120 _104_
*121 _105_
*122 _106_
*123 _107_
*124 _108_
*125 _109_
*126 _110_
*127 _111_
*128 _112_
*129 _113_
*130 _114_
*131 _115_
*132 _116_
*133 _117_
*134 _118_
*135 _119_
*136 _120_
*137 _121_
*138 _122_
*139 _123_
*140 _124_
*141 _125_
*142 _126_
*143 _127_
*144 _128_
*145 _129_
*146 _130_
*147 _131_
*148 _132_
*149 _133_
*150 _134_
*151 _135_
*152 _136_
*153 _137_
*154 _138_
*155 _139_
*156 _140_
*157 _141_
*158 _142_
*159 _143_
*160 _144_
*161 _145_
*162 _146_
*163 _147_
*164 _148_
*165 _149_
*166 _150_
*167 _151_
*168 _152_
*169 _153_
*170 _154_
*171 _155_
*172 _156_
*173 _157_
*174 _158_
*175 _159_
*176 _160_
*177 _161_
*178 _162_
*179 _163_
*180 _164_
*181 _165_
*182 _166_
*183 _167_
*184 _168_
*185 _169_
*186 _170_
*187 _171_
*188 _172_
*189 _173_
*190 _174_
*191 _175_
*192 _176_
*193 _177_
*194 _178_
*195 _179_
*196 _180_
*197 _181_
*198 _182_
*199 _183_
*200 _184_
*201 _185_
*202 _186_
*203 _187_
*204 _188_
*205 _189_
*206 _190_
*207 _191_
*208 _192_
*209 _193_
*210 _194_
*211 _195_
*212 _196_
*213 _197_
*214 _198_
*215 _199_
*216 _200_
*217 _201_
*218 _202_
*219 _203_
*220 _204_
*221 _205_
*222 _206_
*223 _207_
*224 _208_
*225 _209_
*226 _210_
*227 _211_
*228 _212_
*229 _213_
*230 _214_
*231 _215_
*232 _216_
*233 _217_
*234 _218_
*235 _219_
*236 _220_
*237 _221_
*238 _222_
*239 _223_
*240 _224_
*241 _225_
*242 _226_
*243 _227_
*244 _228_
*245 _229_
*246 _230_
*247 _231_
*248 _232_
*249 _233_
*250 _234_
*251 _235_
*252 _236_
*253 _237_
*254 _238_
*255 _239_
*256 _240_
*257 _241_
*258 _242_
*259 _243_
*260 _244_
*261 _245_
*262 _246_
*263 _247_
*264 _248_
*265 _249_
*266 _250_
*267 _251_
*268 _252_
*269 _253_
*270 net1
*271 net10
*272 net11
*273 net12
*274 net13
*275 net14
*276 net15
*277 net16
*278 net2
*279 net3
*280 net4
*281 net5
*282 net6
*283 net7
*284 net8
*285 net9
*286 raven_spi\.U1\.addr\[0\]
*287 raven_spi\.U1\.addr\[1\]
*288 raven_spi\.U1\.addr\[2\]
*289 raven_spi\.U1\.addr\[3\]
*290 raven_spi\.U1\.addr\[4\]
*291 raven_spi\.U1\.addr\[5\]
*292 raven_spi\.U1\.addr\[6\]
*293 raven_spi\.U1\.addr\[7\]
*294 raven_spi\.U1\.count\[0\]
*295 raven_spi\.U1\.count\[1\]
*296 raven_spi\.U1\.count\[2\]
*297 raven_spi\.U1\.fixed\[0\]
*298 raven_spi\.U1\.fixed\[1\]
*299 raven_spi\.U1\.fixed\[2\]
*300 raven_spi\.U1\.ldata\[0\]
*301 raven_spi\.U1\.ldata\[1\]
*302 raven_spi\.U1\.ldata\[2\]
*303 raven_spi\.U1\.ldata\[3\]
*304 raven_spi\.U1\.ldata\[4\]
*305 raven_spi\.U1\.ldata\[5\]
*306 raven_spi\.U1\.ldata\[6\]
*307 raven_spi\.U1\.odata\[1\]
*308 raven_spi\.U1\.odata\[2\]
*309 raven_spi\.U1\.odata\[3\]
*310 raven_spi\.U1\.odata\[4\]
*311 raven_spi\.U1\.odata\[5\]
*312 raven_spi\.U1\.odata\[6\]
*313 raven_spi\.U1\.odata\[7\]
*314 raven_spi\.U1\.readmode
*315 raven_spi\.U1\.state\[0\]
*316 raven_spi\.U1\.state\[1\]
*317 raven_spi\.U1\.state\[2\]
*318 raven_spi\.U1\.writemode
*319 raven_spi\.U1\.wrstb
*320 raven_spi\.irq
*321 raven_spi\.pll_bypass
*322 raven_spi\.pll_cp_ena
*323 raven_spi\.pll_trim\[0\]
*324 raven_spi\.pll_trim\[1\]
*325 raven_spi\.pll_trim\[2\]
*326 raven_spi\.pll_trim\[3\]
*327 raven_spi\.pll_vco_ena
*328 raven_spi\.reg_ena
*329 raven_spi\.xtal_ena
*330 FILLER_0_0_109
*331 FILLER_0_0_113
*332 FILLER_0_0_125
*333 FILLER_0_0_137
*334 FILLER_0_0_141
*335 FILLER_0_0_153
*336 FILLER_0_0_165
*337 FILLER_0_0_169
*338 FILLER_0_0_18
*339 FILLER_0_0_181
*340 FILLER_0_0_193
*341 FILLER_0_0_197
*342 FILLER_0_0_202
*343 FILLER_0_0_214
*344 FILLER_0_0_222
*345 FILLER_0_0_225
*346 FILLER_0_0_237
*347 FILLER_0_0_249
*348 FILLER_0_0_253
*349 FILLER_0_0_26
*350 FILLER_0_0_261
*351 FILLER_0_0_29
*352 FILLER_0_0_41
*353 FILLER_0_0_53
*354 FILLER_0_0_57
*355 FILLER_0_0_6
*356 FILLER_0_0_69
*357 FILLER_0_0_81
*358 FILLER_0_0_85
*359 FILLER_0_0_93
*360 FILLER_0_0_97
*361 FILLER_0_10_113
*362 FILLER_0_10_125
*363 FILLER_0_10_129
*364 FILLER_0_10_139
*365 FILLER_0_10_141
*366 FILLER_0_10_15
*367 FILLER_0_10_170
*368 FILLER_0_10_182
*369 FILLER_0_10_193
*370 FILLER_0_10_197
*371 FILLER_0_10_205
*372 FILLER_0_10_210
*373 FILLER_0_10_222
*374 FILLER_0_10_234
*375 FILLER_0_10_246
*376 FILLER_0_10_253
*377 FILLER_0_10_261
*378 FILLER_0_10_27
*379 FILLER_0_10_29
*380 FILLER_0_10_3
*381 FILLER_0_10_79
*382 FILLER_0_10_83
*383 FILLER_0_10_85
*384 FILLER_0_10_97
*385 FILLER_0_11_100
*386 FILLER_0_11_104
*387 FILLER_0_11_111
*388 FILLER_0_11_120
*389 FILLER_0_11_135
*390 FILLER_0_11_148
*391 FILLER_0_11_15
*392 FILLER_0_11_160
*393 FILLER_0_11_169
*394 FILLER_0_11_181
*395 FILLER_0_11_193
*396 FILLER_0_11_205
*397 FILLER_0_11_217
*398 FILLER_0_11_223
*399 FILLER_0_11_225
*400 FILLER_0_11_237
*401 FILLER_0_11_249
*402 FILLER_0_11_261
*403 FILLER_0_11_27
*404 FILLER_0_11_3
*405 FILLER_0_11_39
*406 FILLER_0_11_67
*407 FILLER_0_11_79
*408 FILLER_0_11_91
*409 FILLER_0_12_111
*410 FILLER_0_12_139
*411 FILLER_0_12_141
*412 FILLER_0_12_15
*413 FILLER_0_12_156
*414 FILLER_0_12_164
*415 FILLER_0_12_190
*416 FILLER_0_12_217
*417 FILLER_0_12_229
*418 FILLER_0_12_241
*419 FILLER_0_12_249
*420 FILLER_0_12_253
*421 FILLER_0_12_261
*422 FILLER_0_12_27
*423 FILLER_0_12_29
*424 FILLER_0_12_3
*425 FILLER_0_12_41
*426 FILLER_0_12_53
*427 FILLER_0_12_60
*428 FILLER_0_12_72
*429 FILLER_0_13_103
*430 FILLER_0_13_111
*431 FILLER_0_13_113
*432 FILLER_0_13_125
*433 FILLER_0_13_137
*434 FILLER_0_13_149
*435 FILLER_0_13_15
*436 FILLER_0_13_161
*437 FILLER_0_13_167
*438 FILLER_0_13_169
*439 FILLER_0_13_181
*440 FILLER_0_13_193
*441 FILLER_0_13_197
*442 FILLER_0_13_201
*443 FILLER_0_13_213
*444 FILLER_0_13_221
*445 FILLER_0_13_225
*446 FILLER_0_13_237
*447 FILLER_0_13_249
*448 FILLER_0_13_261
*449 FILLER_0_13_27
*450 FILLER_0_13_3
*451 FILLER_0_13_39
*452 FILLER_0_13_51
*453 FILLER_0_13_55
*454 FILLER_0_13_57
*455 FILLER_0_13_70
*456 FILLER_0_13_76
*457 FILLER_0_13_88
*458 FILLER_0_13_94
*459 FILLER_0_14_109
*460 FILLER_0_14_121
*461 FILLER_0_14_133
*462 FILLER_0_14_139
*463 FILLER_0_14_141
*464 FILLER_0_14_15
*465 FILLER_0_14_150
*466 FILLER_0_14_162
*467 FILLER_0_14_174
*468 FILLER_0_14_192
*469 FILLER_0_14_209
*470 FILLER_0_14_221
*471 FILLER_0_14_233
*472 FILLER_0_14_245
*473 FILLER_0_14_251
*474 FILLER_0_14_253
*475 FILLER_0_14_261
*476 FILLER_0_14_27
*477 FILLER_0_14_29
*478 FILLER_0_14_3
*479 FILLER_0_14_82
*480 FILLER_0_14_85
*481 FILLER_0_14_97
*482 FILLER_0_15_102
*483 FILLER_0_15_110
*484 FILLER_0_15_113
*485 FILLER_0_15_130
*486 FILLER_0_15_162
*487 FILLER_0_15_169
*488 FILLER_0_15_18
*489 FILLER_0_15_181
*490 FILLER_0_15_195
*491 FILLER_0_15_207
*492 FILLER_0_15_219
*493 FILLER_0_15_223
*494 FILLER_0_15_225
*495 FILLER_0_15_237
*496 FILLER_0_15_249
*497 FILLER_0_15_261
*498 FILLER_0_15_30
*499 FILLER_0_15_38
*500 FILLER_0_15_44
*501 FILLER_0_15_57
*502 FILLER_0_15_6
*503 FILLER_0_15_69
*504 FILLER_0_15_81
*505 FILLER_0_15_93
*506 FILLER_0_16_106
*507 FILLER_0_16_128
*508 FILLER_0_16_141
*509 FILLER_0_16_15
*510 FILLER_0_16_153
*511 FILLER_0_16_165
*512 FILLER_0_16_177
*513 FILLER_0_16_189
*514 FILLER_0_16_195
*515 FILLER_0_16_197
*516 FILLER_0_16_209
*517 FILLER_0_16_221
*518 FILLER_0_16_233
*519 FILLER_0_16_245
*520 FILLER_0_16_251
*521 FILLER_0_16_253
*522 FILLER_0_16_261
*523 FILLER_0_16_27
*524 FILLER_0_16_29
*525 FILLER_0_16_3
*526 FILLER_0_16_41
*527 FILLER_0_16_53
*528 FILLER_0_16_65
*529 FILLER_0_16_77
*530 FILLER_0_16_83
*531 FILLER_0_16_94
*532 FILLER_0_17_104
*533 FILLER_0_17_110
*534 FILLER_0_17_116
*535 FILLER_0_17_121
*536 FILLER_0_17_133
*537 FILLER_0_17_145
*538 FILLER_0_17_15
*539 FILLER_0_17_157
*540 FILLER_0_17_165
*541 FILLER_0_17_169
*542 FILLER_0_17_177
*543 FILLER_0_17_189
*544 FILLER_0_17_201
*545 FILLER_0_17_213
*546 FILLER_0_17_221
*547 FILLER_0_17_225
*548 FILLER_0_17_237
*549 FILLER_0_17_249
*550 FILLER_0_17_261
*551 FILLER_0_17_27
*552 FILLER_0_17_3
*553 FILLER_0_17_39
*554 FILLER_0_17_51
*555 FILLER_0_17_55
*556 FILLER_0_17_57
*557 FILLER_0_17_67
*558 FILLER_0_18_100
*559 FILLER_0_18_112
*560 FILLER_0_18_120
*561 FILLER_0_18_139
*562 FILLER_0_18_145
*563 FILLER_0_18_15
*564 FILLER_0_18_157
*565 FILLER_0_18_165
*566 FILLER_0_18_169
*567 FILLER_0_18_183
*568 FILLER_0_18_191
*569 FILLER_0_18_195
*570 FILLER_0_18_209
*571 FILLER_0_18_221
*572 FILLER_0_18_233
*573 FILLER_0_18_245
*574 FILLER_0_18_251
*575 FILLER_0_18_253
*576 FILLER_0_18_261
*577 FILLER_0_18_27
*578 FILLER_0_18_29
*579 FILLER_0_18_3
*580 FILLER_0_18_41
*581 FILLER_0_18_48
*582 FILLER_0_18_78
*583 FILLER_0_18_88
*584 FILLER_0_19_102
*585 FILLER_0_19_110
*586 FILLER_0_19_113
*587 FILLER_0_19_125
*588 FILLER_0_19_129
*589 FILLER_0_19_15
*590 FILLER_0_19_150
*591 FILLER_0_19_158
*592 FILLER_0_19_167
*593 FILLER_0_19_214
*594 FILLER_0_19_222
*595 FILLER_0_19_225
*596 FILLER_0_19_237
*597 FILLER_0_19_249
*598 FILLER_0_19_261
*599 FILLER_0_19_27
*600 FILLER_0_19_3
*601 FILLER_0_19_35
*602 FILLER_0_19_66
*603 FILLER_0_19_78
*604 FILLER_0_19_90
*605 FILLER_0_1_113
*606 FILLER_0_1_141
*607 FILLER_0_1_15
*608 FILLER_0_1_153
*609 FILLER_0_1_165
*610 FILLER_0_1_169
*611 FILLER_0_1_181
*612 FILLER_0_1_193
*613 FILLER_0_1_205
*614 FILLER_0_1_217
*615 FILLER_0_1_223
*616 FILLER_0_1_225
*617 FILLER_0_1_237
*618 FILLER_0_1_249
*619 FILLER_0_1_257
*620 FILLER_0_1_27
*621 FILLER_0_1_3
*622 FILLER_0_1_39
*623 FILLER_0_1_51
*624 FILLER_0_1_55
*625 FILLER_0_1_57
*626 FILLER_0_1_69
*627 FILLER_0_1_81
*628 FILLER_0_1_89
*629 FILLER_0_20_108
*630 FILLER_0_20_118
*631 FILLER_0_20_126
*632 FILLER_0_20_132
*633 FILLER_0_20_141
*634 FILLER_0_20_145
*635 FILLER_0_20_15
*636 FILLER_0_20_157
*637 FILLER_0_20_165
*638 FILLER_0_20_175
*639 FILLER_0_20_184
*640 FILLER_0_20_197
*641 FILLER_0_20_204
*642 FILLER_0_20_216
*643 FILLER_0_20_228
*644 FILLER_0_20_240
*645 FILLER_0_20_253
*646 FILLER_0_20_27
*647 FILLER_0_20_29
*648 FILLER_0_20_3
*649 FILLER_0_20_41
*650 FILLER_0_20_52
*651 FILLER_0_20_64
*652 FILLER_0_20_76
*653 FILLER_0_20_85
*654 FILLER_0_20_97
*655 FILLER_0_21_111
*656 FILLER_0_21_122
*657 FILLER_0_21_134
*658 FILLER_0_21_146
*659 FILLER_0_21_15
*660 FILLER_0_21_158
*661 FILLER_0_21_166
*662 FILLER_0_21_169
*663 FILLER_0_21_181
*664 FILLER_0_21_193
*665 FILLER_0_21_205
*666 FILLER_0_21_217
*667 FILLER_0_21_223
*668 FILLER_0_21_225
*669 FILLER_0_21_237
*670 FILLER_0_21_249
*671 FILLER_0_21_255
*672 FILLER_0_21_261
*673 FILLER_0_21_27
*674 FILLER_0_21_3
*675 FILLER_0_21_39
*676 FILLER_0_21_51
*677 FILLER_0_21_55
*678 FILLER_0_21_57
*679 FILLER_0_21_69
*680 FILLER_0_21_91
*681 FILLER_0_22_123
*682 FILLER_0_22_135
*683 FILLER_0_22_139
*684 FILLER_0_22_141
*685 FILLER_0_22_15
*686 FILLER_0_22_153
*687 FILLER_0_22_161
*688 FILLER_0_22_179
*689 FILLER_0_22_191
*690 FILLER_0_22_195
*691 FILLER_0_22_197
*692 FILLER_0_22_209
*693 FILLER_0_22_221
*694 FILLER_0_22_233
*695 FILLER_0_22_245
*696 FILLER_0_22_251
*697 FILLER_0_22_253
*698 FILLER_0_22_261
*699 FILLER_0_22_27
*700 FILLER_0_22_29
*701 FILLER_0_22_3
*702 FILLER_0_22_41
*703 FILLER_0_22_53
*704 FILLER_0_22_65
*705 FILLER_0_22_73
*706 FILLER_0_22_78
*707 FILLER_0_23_108
*708 FILLER_0_23_113
*709 FILLER_0_23_125
*710 FILLER_0_23_137
*711 FILLER_0_23_143
*712 FILLER_0_23_149
*713 FILLER_0_23_15
*714 FILLER_0_23_153
*715 FILLER_0_23_165
*716 FILLER_0_23_169
*717 FILLER_0_23_181
*718 FILLER_0_23_206
*719 FILLER_0_23_215
*720 FILLER_0_23_223
*721 FILLER_0_23_225
*722 FILLER_0_23_237
*723 FILLER_0_23_249
*724 FILLER_0_23_261
*725 FILLER_0_23_27
*726 FILLER_0_23_3
*727 FILLER_0_23_39
*728 FILLER_0_23_51
*729 FILLER_0_23_55
*730 FILLER_0_23_60
*731 FILLER_0_23_72
*732 FILLER_0_23_84
*733 FILLER_0_23_96
*734 FILLER_0_24_104
*735 FILLER_0_24_112
*736 FILLER_0_24_121
*737 FILLER_0_24_130
*738 FILLER_0_24_138
*739 FILLER_0_24_15
*740 FILLER_0_24_162
*741 FILLER_0_24_177
*742 FILLER_0_24_189
*743 FILLER_0_24_195
*744 FILLER_0_24_200
*745 FILLER_0_24_225
*746 FILLER_0_24_237
*747 FILLER_0_24_249
*748 FILLER_0_24_253
*749 FILLER_0_24_261
*750 FILLER_0_24_27
*751 FILLER_0_24_29
*752 FILLER_0_24_3
*753 FILLER_0_24_41
*754 FILLER_0_24_64
*755 FILLER_0_24_73
*756 FILLER_0_24_77
*757 FILLER_0_24_82
*758 FILLER_0_24_92
*759 FILLER_0_25_108
*760 FILLER_0_25_113
*761 FILLER_0_25_117
*762 FILLER_0_25_146
*763 FILLER_0_25_15
*764 FILLER_0_25_158
*765 FILLER_0_25_166
*766 FILLER_0_25_190
*767 FILLER_0_25_202
*768 FILLER_0_25_209
*769 FILLER_0_25_221
*770 FILLER_0_25_225
*771 FILLER_0_25_237
*772 FILLER_0_25_249
*773 FILLER_0_25_261
*774 FILLER_0_25_27
*775 FILLER_0_25_3
*776 FILLER_0_25_39
*777 FILLER_0_25_51
*778 FILLER_0_25_55
*779 FILLER_0_25_57
*780 FILLER_0_25_65
*781 FILLER_0_25_75
*782 FILLER_0_25_82
*783 FILLER_0_25_96
*784 FILLER_0_26_113
*785 FILLER_0_26_125
*786 FILLER_0_26_130
*787 FILLER_0_26_138
*788 FILLER_0_26_141
*789 FILLER_0_26_15
*790 FILLER_0_26_153
*791 FILLER_0_26_165
*792 FILLER_0_26_169
*793 FILLER_0_26_179
*794 FILLER_0_26_189
*795 FILLER_0_26_195
*796 FILLER_0_26_197
*797 FILLER_0_26_214
*798 FILLER_0_26_226
*799 FILLER_0_26_238
*800 FILLER_0_26_250
*801 FILLER_0_26_253
*802 FILLER_0_26_261
*803 FILLER_0_26_27
*804 FILLER_0_26_29
*805 FILLER_0_26_3
*806 FILLER_0_26_58
*807 FILLER_0_26_70
*808 FILLER_0_26_82
*809 FILLER_0_26_91
*810 FILLER_0_26_99
*811 FILLER_0_27_119
*812 FILLER_0_27_131
*813 FILLER_0_27_143
*814 FILLER_0_27_15
*815 FILLER_0_27_155
*816 FILLER_0_27_163
*817 FILLER_0_27_169
*818 FILLER_0_27_175
*819 FILLER_0_27_182
*820 FILLER_0_27_194
*821 FILLER_0_27_206
*822 FILLER_0_27_221
*823 FILLER_0_27_225
*824 FILLER_0_27_237
*825 FILLER_0_27_249
*826 FILLER_0_27_261
*827 FILLER_0_27_27
*828 FILLER_0_27_3
*829 FILLER_0_27_31
*830 FILLER_0_27_40
*831 FILLER_0_27_45
*832 FILLER_0_27_49
*833 FILLER_0_27_55
*834 FILLER_0_27_57
*835 FILLER_0_27_69
*836 FILLER_0_27_77
*837 FILLER_0_27_82
*838 FILLER_0_27_90
*839 FILLER_0_28_103
*840 FILLER_0_28_110
*841 FILLER_0_28_122
*842 FILLER_0_28_130
*843 FILLER_0_28_136
*844 FILLER_0_28_15
*845 FILLER_0_28_161
*846 FILLER_0_28_173
*847 FILLER_0_28_189
*848 FILLER_0_28_195
*849 FILLER_0_28_197
*850 FILLER_0_28_232
*851 FILLER_0_28_244
*852 FILLER_0_28_253
*853 FILLER_0_28_261
*854 FILLER_0_28_27
*855 FILLER_0_28_29
*856 FILLER_0_28_3
*857 FILLER_0_28_41
*858 FILLER_0_28_53
*859 FILLER_0_28_65
*860 FILLER_0_28_77
*861 FILLER_0_28_83
*862 FILLER_0_28_95
*863 FILLER_0_29_110
*864 FILLER_0_29_116
*865 FILLER_0_29_124
*866 FILLER_0_29_134
*867 FILLER_0_29_142
*868 FILLER_0_29_147
*869 FILLER_0_29_15
*870 FILLER_0_29_159
*871 FILLER_0_29_167
*872 FILLER_0_29_169
*873 FILLER_0_29_189
*874 FILLER_0_29_201
*875 FILLER_0_29_205
*876 FILLER_0_29_228
*877 FILLER_0_29_240
*878 FILLER_0_29_252
*879 FILLER_0_29_260
*880 FILLER_0_29_27
*881 FILLER_0_29_3
*882 FILLER_0_29_39
*883 FILLER_0_29_51
*884 FILLER_0_29_55
*885 FILLER_0_29_65
*886 FILLER_0_29_77
*887 FILLER_0_29_87
*888 FILLER_0_29_99
*889 FILLER_0_2_101
*890 FILLER_0_2_105
*891 FILLER_0_2_109
*892 FILLER_0_2_117
*893 FILLER_0_2_130
*894 FILLER_0_2_135
*895 FILLER_0_2_139
*896 FILLER_0_2_141
*897 FILLER_0_2_15
*898 FILLER_0_2_153
*899 FILLER_0_2_165
*900 FILLER_0_2_177
*901 FILLER_0_2_189
*902 FILLER_0_2_195
*903 FILLER_0_2_197
*904 FILLER_0_2_209
*905 FILLER_0_2_221
*906 FILLER_0_2_233
*907 FILLER_0_2_245
*908 FILLER_0_2_251
*909 FILLER_0_2_253
*910 FILLER_0_2_261
*911 FILLER_0_2_27
*912 FILLER_0_2_29
*913 FILLER_0_2_3
*914 FILLER_0_2_41
*915 FILLER_0_2_53
*916 FILLER_0_2_65
*917 FILLER_0_2_71
*918 FILLER_0_2_75
*919 FILLER_0_2_82
*920 FILLER_0_2_85
*921 FILLER_0_2_97
*922 FILLER_0_30_101
*923 FILLER_0_30_118
*924 FILLER_0_30_123
*925 FILLER_0_30_133
*926 FILLER_0_30_139
*927 FILLER_0_30_15
*928 FILLER_0_30_150
*929 FILLER_0_30_162
*930 FILLER_0_30_174
*931 FILLER_0_30_180
*932 FILLER_0_30_184
*933 FILLER_0_30_188
*934 FILLER_0_30_197
*935 FILLER_0_30_209
*936 FILLER_0_30_221
*937 FILLER_0_30_233
*938 FILLER_0_30_245
*939 FILLER_0_30_251
*940 FILLER_0_30_253
*941 FILLER_0_30_261
*942 FILLER_0_30_27
*943 FILLER_0_30_29
*944 FILLER_0_30_3
*945 FILLER_0_30_41
*946 FILLER_0_30_68
*947 FILLER_0_30_80
*948 FILLER_0_30_85
*949 FILLER_0_30_93
*950 FILLER_0_31_105
*951 FILLER_0_31_111
*952 FILLER_0_31_136
*953 FILLER_0_31_148
*954 FILLER_0_31_15
*955 FILLER_0_31_160
*956 FILLER_0_31_169
*957 FILLER_0_31_181
*958 FILLER_0_31_193
*959 FILLER_0_31_211
*960 FILLER_0_31_223
*961 FILLER_0_31_225
*962 FILLER_0_31_237
*963 FILLER_0_31_249
*964 FILLER_0_31_261
*965 FILLER_0_31_27
*966 FILLER_0_31_3
*967 FILLER_0_31_39
*968 FILLER_0_31_53
*969 FILLER_0_31_57
*970 FILLER_0_31_69
*971 FILLER_0_31_81
*972 FILLER_0_31_93
*973 FILLER_0_32_104
*974 FILLER_0_32_116
*975 FILLER_0_32_128
*976 FILLER_0_32_141
*977 FILLER_0_32_147
*978 FILLER_0_32_15
*979 FILLER_0_32_154
*980 FILLER_0_32_164
*981 FILLER_0_32_192
*982 FILLER_0_32_197
*983 FILLER_0_32_201
*984 FILLER_0_32_226
*985 FILLER_0_32_238
*986 FILLER_0_32_250
*987 FILLER_0_32_253
*988 FILLER_0_32_261
*989 FILLER_0_32_27
*990 FILLER_0_32_29
*991 FILLER_0_32_3
*992 FILLER_0_32_41
*993 FILLER_0_32_62
*994 FILLER_0_32_74
*995 FILLER_0_32_92
*996 FILLER_0_33_104
*997 FILLER_0_33_113
*998 FILLER_0_33_123
*999 FILLER_0_33_132
*1000 FILLER_0_33_140
*1001 FILLER_0_33_147
*1002 FILLER_0_33_15
*1003 FILLER_0_33_166
*1004 FILLER_0_33_169
*1005 FILLER_0_33_184
*1006 FILLER_0_33_196
*1007 FILLER_0_33_208
*1008 FILLER_0_33_220
*1009 FILLER_0_33_225
*1010 FILLER_0_33_237
*1011 FILLER_0_33_249
*1012 FILLER_0_33_261
*1013 FILLER_0_33_27
*1014 FILLER_0_33_3
*1015 FILLER_0_33_39
*1016 FILLER_0_33_47
*1017 FILLER_0_33_55
*1018 FILLER_0_33_57
*1019 FILLER_0_33_84
*1020 FILLER_0_34_108
*1021 FILLER_0_34_141
*1022 FILLER_0_34_149
*1023 FILLER_0_34_156
*1024 FILLER_0_34_168
*1025 FILLER_0_34_176
*1026 FILLER_0_34_18
*1027 FILLER_0_34_180
*1028 FILLER_0_34_193
*1029 FILLER_0_34_197
*1030 FILLER_0_34_209
*1031 FILLER_0_34_221
*1032 FILLER_0_34_233
*1033 FILLER_0_34_245
*1034 FILLER_0_34_251
*1035 FILLER_0_34_253
*1036 FILLER_0_34_26
*1037 FILLER_0_34_261
*1038 FILLER_0_34_29
*1039 FILLER_0_34_41
*1040 FILLER_0_34_53
*1041 FILLER_0_34_6
*1042 FILLER_0_34_65
*1043 FILLER_0_35_104
*1044 FILLER_0_35_113
*1045 FILLER_0_35_125
*1046 FILLER_0_35_137
*1047 FILLER_0_35_145
*1048 FILLER_0_35_15
*1049 FILLER_0_35_151
*1050 FILLER_0_35_163
*1051 FILLER_0_35_167
*1052 FILLER_0_35_169
*1053 FILLER_0_35_177
*1054 FILLER_0_35_189
*1055 FILLER_0_35_213
*1056 FILLER_0_35_221
*1057 FILLER_0_35_225
*1058 FILLER_0_35_237
*1059 FILLER_0_35_249
*1060 FILLER_0_35_261
*1061 FILLER_0_35_27
*1062 FILLER_0_35_3
*1063 FILLER_0_35_39
*1064 FILLER_0_35_51
*1065 FILLER_0_35_55
*1066 FILLER_0_35_57
*1067 FILLER_0_35_69
*1068 FILLER_0_35_93
*1069 FILLER_0_36_102
*1070 FILLER_0_36_114
*1071 FILLER_0_36_126
*1072 FILLER_0_36_138
*1073 FILLER_0_36_141
*1074 FILLER_0_36_15
*1075 FILLER_0_36_153
*1076 FILLER_0_36_165
*1077 FILLER_0_36_189
*1078 FILLER_0_36_195
*1079 FILLER_0_36_197
*1080 FILLER_0_36_209
*1081 FILLER_0_36_221
*1082 FILLER_0_36_233
*1083 FILLER_0_36_245
*1084 FILLER_0_36_251
*1085 FILLER_0_36_253
*1086 FILLER_0_36_261
*1087 FILLER_0_36_27
*1088 FILLER_0_36_29
*1089 FILLER_0_36_3
*1090 FILLER_0_36_41
*1091 FILLER_0_36_53
*1092 FILLER_0_36_65
*1093 FILLER_0_36_77
*1094 FILLER_0_36_83
*1095 FILLER_0_36_85
*1096 FILLER_0_36_90
*1097 FILLER_0_37_105
*1098 FILLER_0_37_111
*1099 FILLER_0_37_113
*1100 FILLER_0_37_125
*1101 FILLER_0_37_137
*1102 FILLER_0_37_15
*1103 FILLER_0_37_159
*1104 FILLER_0_37_167
*1105 FILLER_0_37_169
*1106 FILLER_0_37_175
*1107 FILLER_0_37_187
*1108 FILLER_0_37_199
*1109 FILLER_0_37_211
*1110 FILLER_0_37_223
*1111 FILLER_0_37_225
*1112 FILLER_0_37_237
*1113 FILLER_0_37_249
*1114 FILLER_0_37_261
*1115 FILLER_0_37_27
*1116 FILLER_0_37_3
*1117 FILLER_0_37_39
*1118 FILLER_0_37_51
*1119 FILLER_0_37_55
*1120 FILLER_0_37_57
*1121 FILLER_0_37_69
*1122 FILLER_0_37_81
*1123 FILLER_0_37_93
*1124 FILLER_0_38_109
*1125 FILLER_0_38_121
*1126 FILLER_0_38_133
*1127 FILLER_0_38_139
*1128 FILLER_0_38_141
*1129 FILLER_0_38_15
*1130 FILLER_0_38_153
*1131 FILLER_0_38_165
*1132 FILLER_0_38_177
*1133 FILLER_0_38_189
*1134 FILLER_0_38_195
*1135 FILLER_0_38_197
*1136 FILLER_0_38_209
*1137 FILLER_0_38_221
*1138 FILLER_0_38_233
*1139 FILLER_0_38_245
*1140 FILLER_0_38_251
*1141 FILLER_0_38_253
*1142 FILLER_0_38_261
*1143 FILLER_0_38_27
*1144 FILLER_0_38_29
*1145 FILLER_0_38_3
*1146 FILLER_0_38_41
*1147 FILLER_0_38_53
*1148 FILLER_0_38_65
*1149 FILLER_0_38_77
*1150 FILLER_0_38_83
*1151 FILLER_0_38_85
*1152 FILLER_0_38_97
*1153 FILLER_0_39_105
*1154 FILLER_0_39_111
*1155 FILLER_0_39_113
*1156 FILLER_0_39_125
*1157 FILLER_0_39_137
*1158 FILLER_0_39_149
*1159 FILLER_0_39_15
*1160 FILLER_0_39_161
*1161 FILLER_0_39_167
*1162 FILLER_0_39_169
*1163 FILLER_0_39_181
*1164 FILLER_0_39_193
*1165 FILLER_0_39_205
*1166 FILLER_0_39_217
*1167 FILLER_0_39_223
*1168 FILLER_0_39_225
*1169 FILLER_0_39_237
*1170 FILLER_0_39_249
*1171 FILLER_0_39_261
*1172 FILLER_0_39_27
*1173 FILLER_0_39_3
*1174 FILLER_0_39_39
*1175 FILLER_0_39_51
*1176 FILLER_0_39_55
*1177 FILLER_0_39_57
*1178 FILLER_0_39_69
*1179 FILLER_0_39_81
*1180 FILLER_0_39_93
*1181 FILLER_0_3_108
*1182 FILLER_0_3_113
*1183 FILLER_0_3_125
*1184 FILLER_0_3_137
*1185 FILLER_0_3_149
*1186 FILLER_0_3_15
*1187 FILLER_0_3_161
*1188 FILLER_0_3_167
*1189 FILLER_0_3_169
*1190 FILLER_0_3_181
*1191 FILLER_0_3_193
*1192 FILLER_0_3_205
*1193 FILLER_0_3_217
*1194 FILLER_0_3_223
*1195 FILLER_0_3_225
*1196 FILLER_0_3_237
*1197 FILLER_0_3_249
*1198 FILLER_0_3_261
*1199 FILLER_0_3_27
*1200 FILLER_0_3_3
*1201 FILLER_0_3_39
*1202 FILLER_0_3_51
*1203 FILLER_0_3_55
*1204 FILLER_0_3_57
*1205 FILLER_0_3_89
*1206 FILLER_0_3_97
*1207 FILLER_0_40_118
*1208 FILLER_0_40_130
*1209 FILLER_0_40_138
*1210 FILLER_0_40_141
*1211 FILLER_0_40_15
*1212 FILLER_0_40_153
*1213 FILLER_0_40_165
*1214 FILLER_0_40_177
*1215 FILLER_0_40_189
*1216 FILLER_0_40_195
*1217 FILLER_0_40_197
*1218 FILLER_0_40_209
*1219 FILLER_0_40_221
*1220 FILLER_0_40_233
*1221 FILLER_0_40_245
*1222 FILLER_0_40_251
*1223 FILLER_0_40_253
*1224 FILLER_0_40_27
*1225 FILLER_0_40_29
*1226 FILLER_0_40_3
*1227 FILLER_0_40_41
*1228 FILLER_0_40_53
*1229 FILLER_0_40_65
*1230 FILLER_0_40_77
*1231 FILLER_0_40_83
*1232 FILLER_0_40_85
*1233 FILLER_0_40_97
*1234 FILLER_0_41_105
*1235 FILLER_0_41_111
*1236 FILLER_0_41_113
*1237 FILLER_0_41_125
*1238 FILLER_0_41_137
*1239 FILLER_0_41_149
*1240 FILLER_0_41_15
*1241 FILLER_0_41_161
*1242 FILLER_0_41_167
*1243 FILLER_0_41_169
*1244 FILLER_0_41_181
*1245 FILLER_0_41_193
*1246 FILLER_0_41_205
*1247 FILLER_0_41_217
*1248 FILLER_0_41_223
*1249 FILLER_0_41_225
*1250 FILLER_0_41_237
*1251 FILLER_0_41_249
*1252 FILLER_0_41_261
*1253 FILLER_0_41_27
*1254 FILLER_0_41_3
*1255 FILLER_0_41_39
*1256 FILLER_0_41_51
*1257 FILLER_0_41_55
*1258 FILLER_0_41_57
*1259 FILLER_0_41_69
*1260 FILLER_0_41_81
*1261 FILLER_0_41_93
*1262 FILLER_0_42_101
*1263 FILLER_0_42_105
*1264 FILLER_0_42_117
*1265 FILLER_0_42_129
*1266 FILLER_0_42_137
*1267 FILLER_0_42_141
*1268 FILLER_0_42_15
*1269 FILLER_0_42_153
*1270 FILLER_0_42_165
*1271 FILLER_0_42_177
*1272 FILLER_0_42_189
*1273 FILLER_0_42_195
*1274 FILLER_0_42_197
*1275 FILLER_0_42_209
*1276 FILLER_0_42_221
*1277 FILLER_0_42_233
*1278 FILLER_0_42_245
*1279 FILLER_0_42_251
*1280 FILLER_0_42_253
*1281 FILLER_0_42_261
*1282 FILLER_0_42_27
*1283 FILLER_0_42_29
*1284 FILLER_0_42_3
*1285 FILLER_0_42_41
*1286 FILLER_0_42_53
*1287 FILLER_0_42_65
*1288 FILLER_0_42_77
*1289 FILLER_0_42_83
*1290 FILLER_0_42_85
*1291 FILLER_0_42_97
*1292 FILLER_0_43_109
*1293 FILLER_0_43_113
*1294 FILLER_0_43_125
*1295 FILLER_0_43_13
*1296 FILLER_0_43_137
*1297 FILLER_0_43_141
*1298 FILLER_0_43_153
*1299 FILLER_0_43_165
*1300 FILLER_0_43_169
*1301 FILLER_0_43_181
*1302 FILLER_0_43_193
*1303 FILLER_0_43_197
*1304 FILLER_0_43_209
*1305 FILLER_0_43_221
*1306 FILLER_0_43_225
*1307 FILLER_0_43_233
*1308 FILLER_0_43_245
*1309 FILLER_0_43_25
*1310 FILLER_0_43_251
*1311 FILLER_0_43_253
*1312 FILLER_0_43_261
*1313 FILLER_0_43_29
*1314 FILLER_0_43_3
*1315 FILLER_0_43_41
*1316 FILLER_0_43_53
*1317 FILLER_0_43_57
*1318 FILLER_0_43_69
*1319 FILLER_0_43_81
*1320 FILLER_0_43_85
*1321 FILLER_0_43_9
*1322 FILLER_0_43_97
*1323 FILLER_0_4_109
*1324 FILLER_0_4_129
*1325 FILLER_0_4_137
*1326 FILLER_0_4_15
*1327 FILLER_0_4_150
*1328 FILLER_0_4_162
*1329 FILLER_0_4_174
*1330 FILLER_0_4_186
*1331 FILLER_0_4_194
*1332 FILLER_0_4_197
*1333 FILLER_0_4_209
*1334 FILLER_0_4_221
*1335 FILLER_0_4_233
*1336 FILLER_0_4_245
*1337 FILLER_0_4_251
*1338 FILLER_0_4_253
*1339 FILLER_0_4_261
*1340 FILLER_0_4_27
*1341 FILLER_0_4_29
*1342 FILLER_0_4_3
*1343 FILLER_0_4_41
*1344 FILLER_0_4_53
*1345 FILLER_0_4_65
*1346 FILLER_0_4_82
*1347 FILLER_0_4_85
*1348 FILLER_0_4_97
*1349 FILLER_0_5_105
*1350 FILLER_0_5_111
*1351 FILLER_0_5_113
*1352 FILLER_0_5_135
*1353 FILLER_0_5_15
*1354 FILLER_0_5_163
*1355 FILLER_0_5_167
*1356 FILLER_0_5_169
*1357 FILLER_0_5_181
*1358 FILLER_0_5_193
*1359 FILLER_0_5_205
*1360 FILLER_0_5_217
*1361 FILLER_0_5_223
*1362 FILLER_0_5_225
*1363 FILLER_0_5_237
*1364 FILLER_0_5_249
*1365 FILLER_0_5_261
*1366 FILLER_0_5_27
*1367 FILLER_0_5_3
*1368 FILLER_0_5_39
*1369 FILLER_0_5_51
*1370 FILLER_0_5_55
*1371 FILLER_0_5_60
*1372 FILLER_0_5_72
*1373 FILLER_0_5_84
*1374 FILLER_0_5_92
*1375 FILLER_0_6_112
*1376 FILLER_0_6_124
*1377 FILLER_0_6_130
*1378 FILLER_0_6_138
*1379 FILLER_0_6_141
*1380 FILLER_0_6_15
*1381 FILLER_0_6_153
*1382 FILLER_0_6_165
*1383 FILLER_0_6_177
*1384 FILLER_0_6_189
*1385 FILLER_0_6_195
*1386 FILLER_0_6_197
*1387 FILLER_0_6_209
*1388 FILLER_0_6_221
*1389 FILLER_0_6_233
*1390 FILLER_0_6_245
*1391 FILLER_0_6_251
*1392 FILLER_0_6_253
*1393 FILLER_0_6_261
*1394 FILLER_0_6_27
*1395 FILLER_0_6_29
*1396 FILLER_0_6_3
*1397 FILLER_0_6_41
*1398 FILLER_0_6_63
*1399 FILLER_0_6_71
*1400 FILLER_0_6_82
*1401 FILLER_0_6_85
*1402 FILLER_0_7_100
*1403 FILLER_0_7_113
*1404 FILLER_0_7_125
*1405 FILLER_0_7_148
*1406 FILLER_0_7_15
*1407 FILLER_0_7_160
*1408 FILLER_0_7_169
*1409 FILLER_0_7_181
*1410 FILLER_0_7_193
*1411 FILLER_0_7_205
*1412 FILLER_0_7_217
*1413 FILLER_0_7_223
*1414 FILLER_0_7_225
*1415 FILLER_0_7_237
*1416 FILLER_0_7_249
*1417 FILLER_0_7_261
*1418 FILLER_0_7_27
*1419 FILLER_0_7_3
*1420 FILLER_0_7_39
*1421 FILLER_0_7_43
*1422 FILLER_0_7_53
*1423 FILLER_0_7_66
*1424 FILLER_0_7_88
*1425 FILLER_0_8_110
*1426 FILLER_0_8_122
*1427 FILLER_0_8_126
*1428 FILLER_0_8_130
*1429 FILLER_0_8_138
*1430 FILLER_0_8_141
*1431 FILLER_0_8_15
*1432 FILLER_0_8_153
*1433 FILLER_0_8_165
*1434 FILLER_0_8_177
*1435 FILLER_0_8_189
*1436 FILLER_0_8_195
*1437 FILLER_0_8_197
*1438 FILLER_0_8_209
*1439 FILLER_0_8_221
*1440 FILLER_0_8_233
*1441 FILLER_0_8_245
*1442 FILLER_0_8_251
*1443 FILLER_0_8_253
*1444 FILLER_0_8_261
*1445 FILLER_0_8_27
*1446 FILLER_0_8_29
*1447 FILLER_0_8_3
*1448 FILLER_0_8_41
*1449 FILLER_0_8_53
*1450 FILLER_0_8_65
*1451 FILLER_0_8_74
*1452 FILLER_0_8_81
*1453 FILLER_0_8_85
*1454 FILLER_0_8_93
*1455 FILLER_0_8_98
*1456 FILLER_0_9_116
*1457 FILLER_0_9_131
*1458 FILLER_0_9_139
*1459 FILLER_0_9_149
*1460 FILLER_0_9_15
*1461 FILLER_0_9_154
*1462 FILLER_0_9_160
*1463 FILLER_0_9_169
*1464 FILLER_0_9_181
*1465 FILLER_0_9_193
*1466 FILLER_0_9_201
*1467 FILLER_0_9_209
*1468 FILLER_0_9_221
*1469 FILLER_0_9_225
*1470 FILLER_0_9_237
*1471 FILLER_0_9_249
*1472 FILLER_0_9_261
*1473 FILLER_0_9_27
*1474 FILLER_0_9_3
*1475 FILLER_0_9_39
*1476 FILLER_0_9_44
*1477 FILLER_0_9_50
*1478 FILLER_0_9_57
*1479 FILLER_0_9_67
*1480 FILLER_0_9_79
*1481 FILLER_0_9_87
*1482 PHY_0
*1483 PHY_1
*1484 PHY_10
*1485 PHY_11
*1486 PHY_12
*1487 PHY_13
*1488 PHY_14
*1489 PHY_15
*1490 PHY_16
*1491 PHY_17
*1492 PHY_18
*1493 PHY_19
*1494 PHY_2
*1495 PHY_20
*1496 PHY_21
*1497 PHY_22
*1498 PHY_23
*1499 PHY_24
*1500 PHY_25
*1501 PHY_26
*1502 PHY_27
*1503 PHY_28
*1504 PHY_29
*1505 PHY_3
*1506 PHY_30
*1507 PHY_31
*1508 PHY_32
*1509 PHY_33
*1510 PHY_34
*1511 PHY_35
*1512 PHY_36
*1513 PHY_37
*1514 PHY_38
*1515 PHY_39
*1516 PHY_4
*1517 PHY_40
*1518 PHY_41
*1519 PHY_42
*1520 PHY_43
*1521 PHY_44
*1522 PHY_45
*1523 PHY_46
*1524 PHY_47
*1525 PHY_48
*1526 PHY_49
*1527 PHY_5
*1528 PHY_50
*1529 PHY_51
*1530 PHY_52
*1531 PHY_53
*1532 PHY_54
*1533 PHY_55
*1534 PHY_56
*1535 PHY_57
*1536 PHY_58
*1537 PHY_59
*1538 PHY_6
*1539 PHY_60
*1540 PHY_61
*1541 PHY_62
*1542 PHY_63
*1543 PHY_64
*1544 PHY_65
*1545 PHY_66
*1546 PHY_67
*1547 PHY_68
*1548 PHY_69
*1549 PHY_7
*1550 PHY_70
*1551 PHY_71
*1552 PHY_72
*1553 PHY_73
*1554 PHY_74
*1555 PHY_75
*1556 PHY_76
*1557 PHY_77
*1558 PHY_78
*1559 PHY_79
*1560 PHY_8
*1561 PHY_80
*1562 PHY_81
*1563 PHY_82
*1564 PHY_83
*1565 PHY_84
*1566 PHY_85
*1567 PHY_86
*1568 PHY_87
*1569 PHY_9
*1570 TAP_100
*1571 TAP_101
*1572 TAP_102
*1573 TAP_103
*1574 TAP_104
*1575 TAP_105
*1576 TAP_106
*1577 TAP_107
*1578 TAP_108
*1579 TAP_109
*1580 TAP_110
*1581 TAP_111
*1582 TAP_112
*1583 TAP_113
*1584 TAP_114
*1585 TAP_115
*1586 TAP_116
*1587 TAP_117
*1588 TAP_118
*1589 TAP_119