* NGSPICE file created from design_mux.ext - technology: sky130A

* Black-box entry subcircuit for sky130_fd_sc_hd__tapvpwrvgnd_1 abstract view
.subckt sky130_fd_sc_hd__tapvpwrvgnd_1 VGND VPWR
.ends

* Black-box entry subcircuit for sky130_fd_sc_hd__decap_4 abstract view
.subckt sky130_fd_sc_hd__decap_4 VGND VNB VPB VPWR
.ends

* Black-box entry subcircuit for sky130_fd_sc_hd__decap_3 abstract view
.subckt sky130_fd_sc_hd__decap_3 VGND VNB VPB VPWR
.ends

* Black-box entry subcircuit for sky130_fd_sc_hd__inv_2 abstract view
.subckt sky130_fd_sc_hd__inv_2 A VGND VNB VPB VPWR Y
.ends

* Black-box entry subcircuit for sky130_fd_sc_hd__a32o_1 abstract view
.subckt sky130_fd_sc_hd__a32o_1 A1 A2 A3 B1 B2 VGND VNB VPB VPWR X
.ends

* Black-box entry subcircuit for sky130_ef_sc_hd__decap_12 abstract view
.subckt sky130_ef_sc_hd__decap_12 VPWR VGND VPB VNB
.ends

* Black-box entry subcircuit for sky130_fd_sc_hd__buf_4 abstract view
.subckt sky130_fd_sc_hd__buf_4 A VGND VNB VPB VPWR X
.ends

* Black-box entry subcircuit for sky130_fd_sc_hd__buf_2 abstract view
.subckt sky130_fd_sc_hd__buf_2 A VGND VNB VPB VPWR X
.ends

* Black-box entry subcircuit for sky130_fd_sc_hd__a211o_1 abstract view
.subckt sky130_fd_sc_hd__a211o_1 A1 A2 B1 C1 VGND VNB VPB VPWR X
.ends

* Black-box entry subcircuit for sky130_fd_sc_hd__clkbuf_1 abstract view
.subckt sky130_fd_sc_hd__clkbuf_1 A VGND VNB VPB VPWR X
.ends

* Black-box entry subcircuit for sky130_fd_sc_hd__decap_6 abstract view
.subckt sky130_fd_sc_hd__decap_6 VGND VNB VPB VPWR
.ends

* Black-box entry subcircuit for sky130_fd_sc_hd__clkbuf_4 abstract view
.subckt sky130_fd_sc_hd__clkbuf_4 A VGND VNB VPB VPWR X
.ends

* Black-box entry subcircuit for sky130_fd_sc_hd__fill_1 abstract view
.subckt sky130_fd_sc_hd__fill_1 VGND VNB VPB VPWR
.ends

* Black-box entry subcircuit for sky130_fd_sc_hd__fill_2 abstract view
.subckt sky130_fd_sc_hd__fill_2 VGND VNB VPB VPWR
.ends

* Black-box entry subcircuit for sky130_fd_sc_hd__decap_8 abstract view
.subckt sky130_fd_sc_hd__decap_8 VGND VNB VPB VPWR
.ends

* Black-box entry subcircuit for sky130_fd_sc_hd__nand2_1 abstract view
.subckt sky130_fd_sc_hd__nand2_1 A B VGND VNB VPB VPWR Y
.ends

* Black-box entry subcircuit for sky130_fd_sc_hd__and2_1 abstract view
.subckt sky130_fd_sc_hd__and2_1 A B VGND VNB VPB VPWR X
.ends

* Black-box entry subcircuit for sky130_fd_sc_hd__mux2_1 abstract view
.subckt sky130_fd_sc_hd__mux2_1 A0 A1 S VGND VNB VPB VPWR X
.ends

* Black-box entry subcircuit for sky130_fd_sc_hd__nor2_1 abstract view
.subckt sky130_fd_sc_hd__nor2_1 A B VGND VNB VPB VPWR Y
.ends

* Black-box entry subcircuit for sky130_fd_sc_hd__buf_1 abstract view
.subckt sky130_fd_sc_hd__buf_1 A VGND VNB VPB VPWR X
.ends

* Black-box entry subcircuit for sky130_fd_sc_hd__or3_1 abstract view
.subckt sky130_fd_sc_hd__or3_1 A B C VGND VNB VPB VPWR X
.ends

* Black-box entry subcircuit for sky130_fd_sc_hd__o21ba_1 abstract view
.subckt sky130_fd_sc_hd__o21ba_1 A1 A2 B1_N VGND VNB VPB VPWR X
.ends

* Black-box entry subcircuit for sky130_fd_sc_hd__a22o_1 abstract view
.subckt sky130_fd_sc_hd__a22o_1 A1 A2 B1 B2 VGND VNB VPB VPWR X
.ends

* Black-box entry subcircuit for sky130_fd_sc_hd__a21o_1 abstract view
.subckt sky130_fd_sc_hd__a21o_1 A1 A2 B1 VGND VNB VPB VPWR X
.ends

* Black-box entry subcircuit for sky130_fd_sc_hd__and3_1 abstract view
.subckt sky130_fd_sc_hd__and3_1 A B C VGND VNB VPB VPWR X
.ends

* Black-box entry subcircuit for sky130_fd_sc_hd__nor3_2 abstract view
.subckt sky130_fd_sc_hd__nor3_2 A B C VGND VNB VPB VPWR Y
.ends

* Black-box entry subcircuit for sky130_fd_sc_hd__or2_1 abstract view
.subckt sky130_fd_sc_hd__or2_1 A B VGND VNB VPB VPWR X
.ends

* Black-box entry subcircuit for sky130_fd_sc_hd__dfrtp_1 abstract view
.subckt sky130_fd_sc_hd__dfrtp_1 CLK D RESET_B VGND VNB VPB VPWR Q
.ends

* Black-box entry subcircuit for sky130_fd_sc_hd__and2b_1 abstract view
.subckt sky130_fd_sc_hd__and2b_1 A_N B VGND VNB VPB VPWR X
.ends

* Black-box entry subcircuit for sky130_fd_sc_hd__xnor2_1 abstract view
.subckt sky130_fd_sc_hd__xnor2_1 A B VGND VNB VPB VPWR Y
.ends

* Black-box entry subcircuit for sky130_fd_sc_hd__o221a_1 abstract view
.subckt sky130_fd_sc_hd__o221a_1 A1 A2 B1 B2 C1 VGND VNB VPB VPWR X
.ends

* Black-box entry subcircuit for sky130_fd_sc_hd__o31ai_2 abstract view
.subckt sky130_fd_sc_hd__o31ai_2 A1 A2 A3 B1 VGND VNB VPB VPWR Y
.ends

* Black-box entry subcircuit for sky130_fd_sc_hd__dfrtp_2 abstract view
.subckt sky130_fd_sc_hd__dfrtp_2 CLK D RESET_B VGND VNB VPB VPWR Q
.ends

* Black-box entry subcircuit for sky130_fd_sc_hd__dfstp_1 abstract view
.subckt sky130_fd_sc_hd__dfstp_1 CLK D SET_B VGND VNB VPB VPWR Q
.ends

* Black-box entry subcircuit for sky130_fd_sc_hd__a221o_1 abstract view
.subckt sky130_fd_sc_hd__a221o_1 A1 A2 B1 B2 C1 VGND VNB VPB VPWR X
.ends

* Black-box entry subcircuit for sky130_fd_sc_hd__dfrtp_4 abstract view
.subckt sky130_fd_sc_hd__dfrtp_4 CLK D RESET_B VGND VNB VPB VPWR Q
.ends

* Black-box entry subcircuit for sky130_fd_sc_hd__o21a_1 abstract view
.subckt sky130_fd_sc_hd__o21a_1 A1 A2 B1 VGND VNB VPB VPWR X
.ends

* Black-box entry subcircuit for sky130_fd_sc_hd__nand2_2 abstract view
.subckt sky130_fd_sc_hd__nand2_2 A B VGND VNB VPB VPWR Y
.ends

* Black-box entry subcircuit for sky130_fd_sc_hd__a31o_1 abstract view
.subckt sky130_fd_sc_hd__a31o_1 A1 A2 A3 B1 VGND VNB VPB VPWR X
.ends

* Black-box entry subcircuit for sky130_fd_sc_hd__a21oi_1 abstract view
.subckt sky130_fd_sc_hd__a21oi_1 A1 A2 B1 VGND VNB VPB VPWR Y
.ends

* Black-box entry subcircuit for sky130_fd_sc_hd__dlymetal6s2s_1 abstract view
.subckt sky130_fd_sc_hd__dlymetal6s2s_1 A VGND VNB VPB VPWR X
.ends

* Black-box entry subcircuit for sky130_fd_sc_hd__nand3_1 abstract view
.subckt sky130_fd_sc_hd__nand3_1 A B C VGND VNB VPB VPWR Y
.ends

* Black-box entry subcircuit for sky130_fd_sc_hd__o211ai_1 abstract view
.subckt sky130_fd_sc_hd__o211ai_1 A1 A2 B1 C1 VGND VNB VPB VPWR Y
.ends

* Black-box entry subcircuit for sky130_fd_sc_hd__a311oi_1 abstract view
.subckt sky130_fd_sc_hd__a311oi_1 A1 A2 A3 B1 C1 VGND VNB VPB VPWR Y
.ends

* Black-box entry subcircuit for sky130_fd_sc_hd__and4_1 abstract view
.subckt sky130_fd_sc_hd__and4_1 A B C D VGND VNB VPB VPWR X
.ends

* Black-box entry subcircuit for sky130_fd_sc_hd__clkbuf_2 abstract view
.subckt sky130_fd_sc_hd__clkbuf_2 A VGND VNB VPB VPWR X
.ends

* Black-box entry subcircuit for sky130_fd_sc_hd__o31a_1 abstract view
.subckt sky130_fd_sc_hd__o31a_1 A1 A2 A3 B1 VGND VNB VPB VPWR X
.ends

* Black-box entry subcircuit for sky130_fd_sc_hd__nand2_4 abstract view
.subckt sky130_fd_sc_hd__nand2_4 A B VGND VNB VPB VPWR Y
.ends

* Black-box entry subcircuit for sky130_fd_sc_hd__o22a_1 abstract view
.subckt sky130_fd_sc_hd__o22a_1 A1 A2 B1 B2 VGND VNB VPB VPWR X
.ends

* Black-box entry subcircuit for sky130_fd_sc_hd__and3_2 abstract view
.subckt sky130_fd_sc_hd__and3_2 A B C VGND VNB VPB VPWR X
.ends

* Black-box entry subcircuit for sky130_fd_sc_hd__xor2_1 abstract view
.subckt sky130_fd_sc_hd__xor2_1 A B VGND VNB VPB VPWR X
.ends

* Black-box entry subcircuit for sky130_fd_sc_hd__or3b_1 abstract view
.subckt sky130_fd_sc_hd__or3b_1 A B C_N VGND VNB VPB VPWR X
.ends

* Black-box entry subcircuit for sky130_fd_sc_hd__mux2_2 abstract view
.subckt sky130_fd_sc_hd__mux2_2 A0 A1 S VGND VNB VPB VPWR X
.ends

* Black-box entry subcircuit for sky130_fd_sc_hd__a2bb2o_1 abstract view
.subckt sky130_fd_sc_hd__a2bb2o_1 A1_N A2_N B1 B2 VGND VNB VPB VPWR X
.ends

* Black-box entry subcircuit for sky130_fd_sc_hd__or4_1 abstract view
.subckt sky130_fd_sc_hd__or4_1 A B C D VGND VNB VPB VPWR X
.ends

* Black-box entry subcircuit for sky130_fd_sc_hd__and4_2 abstract view
.subckt sky130_fd_sc_hd__and4_2 A B C D VGND VNB VPB VPWR X
.ends

* Black-box entry subcircuit for sky130_fd_sc_hd__o211a_1 abstract view
.subckt sky130_fd_sc_hd__o211a_1 A1 A2 B1 C1 VGND VNB VPB VPWR X
.ends

* Black-box entry subcircuit for sky130_fd_sc_hd__and2b_2 abstract view
.subckt sky130_fd_sc_hd__and2b_2 A_N B VGND VNB VPB VPWR X
.ends

.subckt design_mux CSB RST SCK SDI VGND VPWR mask_rev_in[0] mask_rev_in[1] mask_rev_in[2]
+ mask_rev_in[3] out select trap
XTAP_177 VGND VPWR sky130_fd_sc_hd__tapvpwrvgnd_1
XTAP_188 VGND VPWR sky130_fd_sc_hd__tapvpwrvgnd_1
XTAP_199 VGND VPWR sky130_fd_sc_hd__tapvpwrvgnd_1
XFILLER_0_27_82 VGND VGND VPWR VPWR sky130_fd_sc_hd__decap_4
XFILLER_0_43_81 VGND VGND VPWR VPWR sky130_fd_sc_hd__decap_3
X_501_ _253_ VGND VGND VPWR VPWR _050_ sky130_fd_sc_hd__inv_2
X_432_ _231_ _235_ _236_ _237_ raven_spi.U1.fixed\[1\] VGND VGND VPWR VPWR _067_ sky130_fd_sc_hd__a32o_1
XFILLER_0_23_225 VPWR VGND VPWR VGND sky130_ef_sc_hd__decap_12
X_363_ _185_ VGND VGND VPWR VPWR _186_ sky130_fd_sc_hd__buf_4
X_294_ raven_spi.U1.state\[0\] VGND VGND VPWR VPWR _131_ sky130_fd_sc_hd__buf_2
XFILLER_0_3_39 VPWR VGND VPWR VGND sky130_ef_sc_hd__decap_12
XFILLER_0_13_51 VGND VGND VPWR VPWR sky130_fd_sc_hd__decap_4
XFILLER_0_1_141 VPWR VGND VPWR VGND sky130_ef_sc_hd__decap_12
XFILLER_0_20_228 VPWR VGND VPWR VGND sky130_ef_sc_hd__decap_12
XFILLER_0_18_29 VPWR VGND VPWR VGND sky130_ef_sc_hd__decap_12
X_415_ _222_ _120_ _136_ _198_ VGND VGND VPWR VPWR _223_ sky130_fd_sc_hd__a211o_1
X_346_ _173_ VGND VGND VPWR VPWR _081_ sky130_fd_sc_hd__clkbuf_1
XFILLER_0_11_217 VGND VGND VPWR VPWR sky130_fd_sc_hd__decap_6
X_277_ _121_ VGND VGND VPWR VPWR _122_ sky130_fd_sc_hd__clkbuf_4
XFILLER_0_6_233 VPWR VGND VPWR VGND sky130_ef_sc_hd__decap_12
XFILLER_0_10_261 VGND VGND VPWR VPWR sky130_fd_sc_hd__fill_1
XFILLER_0_4_82 VGND VGND VPWR VPWR sky130_fd_sc_hd__fill_2
XFILLER_0_37_125 VPWR VGND VPWR VGND sky130_ef_sc_hd__decap_12
XFILLER_0_37_169 VGND VGND VPWR VPWR sky130_fd_sc_hd__decap_3
XFILLER_0_29_39 VPWR VGND VPWR VGND sky130_ef_sc_hd__decap_12
XFILLER_0_0_18 VGND VGND VPWR VPWR sky130_fd_sc_hd__decap_8
XFILLER_0_0_29 VPWR VGND VPWR VGND sky130_ef_sc_hd__decap_12
XFILLER_0_9_27 VPWR VGND VPWR VGND sky130_ef_sc_hd__decap_12
XFILLER_0_28_103 VGND VGND VPWR VPWR sky130_fd_sc_hd__decap_3
XFILLER_0_28_136 VGND VGND VPWR VPWR sky130_fd_sc_hd__fill_1
X_329_ raven_spi.U1.addr\[5\] _160_ VGND VGND VPWR VPWR _161_ sky130_fd_sc_hd__nand2_1
XFILLER_0_3_225 VPWR VGND VPWR VGND sky130_ef_sc_hd__decap_12
XFILLER_0_10_85 VPWR VGND VPWR VGND sky130_ef_sc_hd__decap_12
XFILLER_0_19_125 VGND VGND VPWR VPWR sky130_fd_sc_hd__decap_4
XFILLER_0_35_93 VGND VGND VPWR VPWR sky130_fd_sc_hd__decap_8
XFILLER_0_19_158 VGND VGND VPWR VPWR sky130_fd_sc_hd__fill_1
XFILLER_0_25_117 VGND VGND VPWR VPWR sky130_fd_sc_hd__fill_1
XFILLER_0_18_191 VGND VGND VPWR VPWR sky130_fd_sc_hd__decap_4
XFILLER_0_16_106 VGND VGND VPWR VPWR sky130_fd_sc_hd__fill_2
XFILLER_0_16_128 VPWR VGND VPWR VGND sky130_ef_sc_hd__decap_12
XFILLER_0_21_51 VGND VGND VPWR VPWR sky130_fd_sc_hd__decap_4
XFILLER_0_26_29 VGND VGND VPWR VPWR sky130_fd_sc_hd__decap_3
XFILLER_0_30_197 VPWR VGND VPWR VGND sky130_ef_sc_hd__decap_12
XFILLER_0_38_253 VGND VGND VPWR VPWR sky130_fd_sc_hd__decap_8
XFILLER_0_12_164 VGND VGND VPWR VPWR sky130_fd_sc_hd__decap_3
XFILLER_0_37_39 VPWR VGND VPWR VGND sky130_ef_sc_hd__decap_12
XFILLER_0_41_237 VPWR VGND VPWR VGND sky130_ef_sc_hd__decap_12
XTAP_134 VGND VPWR sky130_fd_sc_hd__tapvpwrvgnd_1
XTAP_123 VGND VPWR sky130_fd_sc_hd__tapvpwrvgnd_1
XTAP_112 VGND VPWR sky130_fd_sc_hd__tapvpwrvgnd_1
XTAP_101 VGND VPWR sky130_fd_sc_hd__tapvpwrvgnd_1
XTAP_145 VGND VPWR sky130_fd_sc_hd__tapvpwrvgnd_1
XTAP_156 VGND VPWR sky130_fd_sc_hd__tapvpwrvgnd_1
XTAP_167 VGND VPWR sky130_fd_sc_hd__tapvpwrvgnd_1
XTAP_178 VGND VPWR sky130_fd_sc_hd__tapvpwrvgnd_1
XTAP_189 VGND VPWR sky130_fd_sc_hd__tapvpwrvgnd_1
XFILLER_0_17_201 VPWR VGND VPWR VGND sky130_ef_sc_hd__decap_12
XFILLER_0_4_194 VGND VGND VPWR VPWR sky130_fd_sc_hd__fill_2
XFILLER_0_4_150 VPWR VGND VPWR VGND sky130_ef_sc_hd__decap_12
XFILLER_0_32_226 VPWR VGND VPWR VGND sky130_ef_sc_hd__decap_12
X_500_ _253_ VGND VGND VPWR VPWR _049_ sky130_fd_sc_hd__inv_2
X_362_ net1 VGND VGND VPWR VPWR _185_ sky130_fd_sc_hd__clkbuf_4
X_431_ _230_ VGND VGND VPWR VPWR _237_ sky130_fd_sc_hd__inv_2
X_293_ _130_ VGND VGND VPWR VPWR _091_ sky130_fd_sc_hd__clkbuf_1
XFILLER_0_2_109 VGND VGND VPWR VPWR sky130_fd_sc_hd__decap_8
XFILLER_0_23_215 VGND VGND VPWR VPWR sky130_fd_sc_hd__decap_8
XFILLER_0_23_237 VPWR VGND VPWR VGND sky130_ef_sc_hd__decap_12
XFILLER_0_1_153 VPWR VGND VPWR VGND sky130_ef_sc_hd__decap_12
XFILLER_0_34_18 VGND VGND VPWR VPWR sky130_fd_sc_hd__decap_8
XFILLER_0_34_29 VPWR VGND VPWR VGND sky130_ef_sc_hd__decap_12
X_414_ raven_spi.pll_trim\[0\] VGND VGND VPWR VPWR _222_ sky130_fd_sc_hd__inv_2
X_276_ raven_spi.U1.wrstb _120_ VGND VGND VPWR VPWR _121_ sky130_fd_sc_hd__and2_1
X_345_ _172_ raven_spi.U1.addr\[2\] _149_ VGND VGND VPWR VPWR _173_ sky130_fd_sc_hd__mux2_1
XFILLER_0_24_73 VGND VGND VPWR VPWR sky130_fd_sc_hd__decap_4
XFILLER_0_40_83 VGND VGND VPWR VPWR sky130_fd_sc_hd__fill_1
XFILLER_0_6_245 VGND VGND VPWR VPWR sky130_fd_sc_hd__decap_6
XFILLER_0_37_137 VGND VGND VPWR VPWR sky130_fd_sc_hd__fill_2
XFILLER_0_37_159 VGND VGND VPWR VPWR sky130_fd_sc_hd__decap_8
XFILLER_0_9_39 VGND VGND VPWR VPWR sky130_fd_sc_hd__fill_2
X_259_ raven_spi.U1.addr\[2\] raven_spi.U1.addr\[1\] raven_spi.U1.state\[2\] VGND
+ VGND VPWR VPWR _106_ sky130_fd_sc_hd__mux2_1
X_328_ _149_ _159_ VGND VGND VPWR VPWR _160_ sky130_fd_sc_hd__nor2_1
XFILLER_0_3_237 VPWR VGND VPWR VGND sky130_ef_sc_hd__decap_12
XFILLER_0_10_97 VGND VGND VPWR VPWR sky130_fd_sc_hd__decap_4
XFILLER_0_42_195 VGND VGND VPWR VPWR sky130_fd_sc_hd__fill_1
XFILLER_0_33_140 VGND VGND VPWR VPWR sky130_fd_sc_hd__fill_1
XFILLER_0_33_184 VPWR VGND VPWR VGND sky130_ef_sc_hd__decap_12
XFILLER_0_24_162 VGND VGND VPWR VPWR sky130_fd_sc_hd__decap_6
XFILLER_0_24_195 VGND VGND VPWR VPWR sky130_fd_sc_hd__fill_1
XFILLER_0_1_51 VGND VGND VPWR VPWR sky130_fd_sc_hd__decap_4
XFILLER_0_27_3 VPWR VGND VPWR VGND sky130_ef_sc_hd__decap_12
XFILLER_0_15_162 VGND VGND VPWR VPWR sky130_fd_sc_hd__decap_6
XFILLER_0_15_195 VPWR VGND VPWR VGND sky130_ef_sc_hd__decap_12
XFILLER_0_42_29 VPWR VGND VPWR VGND sky130_ef_sc_hd__decap_12
XFILLER_0_38_221 VPWR VGND VPWR VGND sky130_ef_sc_hd__decap_12
XFILLER_0_6_29 VPWR VGND VPWR VGND sky130_ef_sc_hd__decap_12
XFILLER_0_16_41 VPWR VGND VPWR VGND sky130_ef_sc_hd__decap_12
XFILLER_0_8_126 VGND VGND VPWR VPWR sky130_fd_sc_hd__fill_1
XFILLER_0_32_62 VPWR VGND VPWR VGND sky130_ef_sc_hd__decap_12
XFILLER_0_7_181 VPWR VGND VPWR VGND sky130_ef_sc_hd__decap_12
XFILLER_0_35_213 VGND VGND VPWR VPWR sky130_fd_sc_hd__decap_8
Xoutput10 net10 VGND VGND VPWR VPWR out sky130_fd_sc_hd__buf_1
XFILLER_0_41_249 VPWR VGND VPWR VGND sky130_ef_sc_hd__decap_12
XFILLER_0_41_205 VPWR VGND VPWR VGND sky130_ef_sc_hd__decap_12
XTAP_135 VGND VPWR sky130_fd_sc_hd__tapvpwrvgnd_1
XTAP_124 VGND VPWR sky130_fd_sc_hd__tapvpwrvgnd_1
XTAP_113 VGND VPWR sky130_fd_sc_hd__tapvpwrvgnd_1
XTAP_102 VGND VPWR sky130_fd_sc_hd__tapvpwrvgnd_1
XTAP_146 VGND VPWR sky130_fd_sc_hd__tapvpwrvgnd_1
XTAP_157 VGND VPWR sky130_fd_sc_hd__tapvpwrvgnd_1
XTAP_168 VGND VPWR sky130_fd_sc_hd__tapvpwrvgnd_1
XTAP_179 VGND VPWR sky130_fd_sc_hd__tapvpwrvgnd_1
XFILLER_0_27_40 VGND VGND VPWR VPWR sky130_fd_sc_hd__fill_2
XFILLER_0_17_213 VGND VGND VPWR VPWR sky130_fd_sc_hd__decap_8
XFILLER_0_32_238 VPWR VGND VPWR VGND sky130_ef_sc_hd__decap_12
XFILLER_0_4_162 VPWR VGND VPWR VGND sky130_ef_sc_hd__decap_12
X_292_ raven_spi.pll_trim\[0\] raven_spi.U1.odata\[4\] _122_ VGND VGND VPWR VPWR _130_
+ sky130_fd_sc_hd__mux2_1
X_361_ _184_ VGND VGND VPWR VPWR _077_ sky130_fd_sc_hd__clkbuf_1
X_430_ raven_spi.U1.fixed\[1\] _232_ _131_ VGND VGND VPWR VPWR _236_ sky130_fd_sc_hd__or3_1
XFILLER_0_23_249 VPWR VGND VPWR VGND sky130_ef_sc_hd__decap_12
XFILLER_0_1_165 VGND VGND VPWR VPWR sky130_fd_sc_hd__decap_3
XFILLER_0_38_83 VGND VGND VPWR VPWR sky130_fd_sc_hd__fill_1
XFILLER_0_9_221 VGND VGND VPWR VPWR sky130_fd_sc_hd__decap_3
XFILLER_0_0_6 VPWR VGND VPWR VGND sky130_ef_sc_hd__decap_12
X_413_ _217_ _219_ _220_ VGND VGND VPWR VPWR _221_ sky130_fd_sc_hd__o21ba_1
X_275_ _119_ VGND VGND VPWR VPWR _120_ sky130_fd_sc_hd__buf_2
X_344_ raven_spi.U1.addr\[1\] _140_ _170_ _171_ VGND VGND VPWR VPWR _172_ sky130_fd_sc_hd__a22o_1
XFILLER_0_24_41 VGND VGND VPWR VPWR sky130_fd_sc_hd__decap_3
XFILLER_0_37_105 VGND VGND VPWR VPWR sky130_fd_sc_hd__decap_6
XFILLER_0_3_249 VPWR VGND VPWR VGND sky130_ef_sc_hd__decap_12
XFILLER_0_3_205 VPWR VGND VPWR VGND sky130_ef_sc_hd__decap_12
X_258_ raven_spi.U1.addr\[3\] raven_spi.U1.addr\[2\] raven_spi.U1.state\[2\] VGND
+ VGND VPWR VPWR _105_ sky130_fd_sc_hd__mux2_1
X_327_ _101_ _152_ VGND VGND VPWR VPWR _159_ sky130_fd_sc_hd__nor2_1
XFILLER_0_43_9 VGND VGND VPWR VPWR sky130_fd_sc_hd__fill_1
XFILLER_0_35_51 VGND VGND VPWR VPWR sky130_fd_sc_hd__decap_4
XFILLER_0_34_108 VPWR VGND VPWR VGND sky130_ef_sc_hd__decap_12
XFILLER_0_42_141 VPWR VGND VPWR VGND sky130_ef_sc_hd__decap_12
XFILLER_0_27_182 VPWR VGND VPWR VGND sky130_ef_sc_hd__decap_12
XFILLER_0_25_108 VGND VGND VPWR VPWR sky130_fd_sc_hd__decap_4
XFILLER_0_33_196 VPWR VGND VPWR VGND sky130_ef_sc_hd__decap_12
XFILLER_0_24_130 VGND VGND VPWR VPWR sky130_fd_sc_hd__fill_2
XFILLER_0_15_130 VGND VGND VPWR VPWR sky130_fd_sc_hd__decap_6
XFILLER_0_30_133 VGND VGND VPWR VPWR sky130_fd_sc_hd__decap_6
XFILLER_0_30_188 VGND VGND VPWR VPWR sky130_fd_sc_hd__fill_1
XFILLER_0_38_233 VPWR VGND VPWR VGND sky130_ef_sc_hd__decap_12
XFILLER_0_21_111 VGND VGND VPWR VPWR sky130_fd_sc_hd__fill_1
XFILLER_0_21_122 VGND VGND VPWR VPWR sky130_fd_sc_hd__decap_6
XFILLER_0_21_166 VGND VGND VPWR VPWR sky130_fd_sc_hd__fill_2
XFILLER_0_16_53 VPWR VGND VPWR VGND sky130_ef_sc_hd__decap_12
XFILLER_0_8_138 VGND VGND VPWR VPWR sky130_fd_sc_hd__fill_2
XFILLER_0_32_41 VGND VGND VPWR VPWR sky130_fd_sc_hd__fill_1
XFILLER_0_32_74 VGND VGND VPWR VPWR sky130_fd_sc_hd__fill_1
XFILLER_0_12_111 VPWR VGND VPWR VGND sky130_ef_sc_hd__decap_12
XFILLER_0_7_193 VPWR VGND VPWR VGND sky130_ef_sc_hd__decap_12
XFILLER_0_7_160 VGND VGND VPWR VPWR sky130_fd_sc_hd__decap_8
XFILLER_0_35_225 VPWR VGND VPWR VGND sky130_ef_sc_hd__decap_12
XFILLER_0_9_3 VPWR VGND VPWR VGND sky130_ef_sc_hd__decap_12
XFILLER_0_26_214 VPWR VGND VPWR VGND sky130_ef_sc_hd__decap_12
XFILLER_0_41_217 VGND VGND VPWR VPWR sky130_fd_sc_hd__decap_6
XTAP_114 VGND VPWR sky130_fd_sc_hd__tapvpwrvgnd_1
XTAP_103 VGND VPWR sky130_fd_sc_hd__tapvpwrvgnd_1
XTAP_125 VGND VPWR sky130_fd_sc_hd__tapvpwrvgnd_1
XTAP_136 VGND VPWR sky130_fd_sc_hd__tapvpwrvgnd_1
XTAP_147 VGND VPWR sky130_fd_sc_hd__tapvpwrvgnd_1
XTAP_158 VGND VPWR sky130_fd_sc_hd__tapvpwrvgnd_1
XTAP_169 VGND VPWR sky130_fd_sc_hd__tapvpwrvgnd_1
XFILLER_0_4_174 VPWR VGND VPWR VGND sky130_ef_sc_hd__decap_12
XFILLER_0_17_225 VPWR VGND VPWR VGND sky130_ef_sc_hd__decap_12
X_291_ _129_ VGND VGND VPWR VPWR _092_ sky130_fd_sc_hd__clkbuf_1
X_360_ net4 raven_spi.U1.readmode _183_ VGND VGND VPWR VPWR _184_ sky130_fd_sc_hd__mux2_1
XFILLER_0_23_206 VGND VGND VPWR VPWR sky130_fd_sc_hd__decap_6
XFILLER_0_31_261 VGND VGND VPWR VPWR sky130_fd_sc_hd__fill_1
XFILLER_0_13_76 VPWR VGND VPWR VGND sky130_ef_sc_hd__decap_12
X_489_ _252_ VGND VGND VPWR VPWR _038_ sky130_fd_sc_hd__inv_2
XFILLER_0_22_261 VGND VGND VPWR VPWR sky130_fd_sc_hd__fill_1
XFILLER_0_13_261 VGND VGND VPWR VPWR sky130_fd_sc_hd__fill_1
X_412_ raven_spi.pll_bypass _115_ _120_ VGND VGND VPWR VPWR _220_ sky130_fd_sc_hd__a21o_1
X_274_ _104_ _107_ _118_ VGND VGND VPWR VPWR _119_ sky130_fd_sc_hd__and3_1
X_343_ _101_ _165_ VGND VGND VPWR VPWR _171_ sky130_fd_sc_hd__nor2_1
XFILLER_0_24_64 VGND VGND VPWR VPWR sky130_fd_sc_hd__decap_6
XFILLER_0_40_85 VPWR VGND VPWR VGND sky130_ef_sc_hd__decap_12
XFILLER_0_40_41 VPWR VGND VPWR VGND sky130_ef_sc_hd__decap_12
XFILLER_0_4_85 VPWR VGND VPWR VGND sky130_ef_sc_hd__decap_12
XFILLER_0_4_41 VPWR VGND VPWR VGND sky130_ef_sc_hd__decap_12
XFILLER_0_10_253 VGND VGND VPWR VPWR sky130_fd_sc_hd__decap_8
X_326_ raven_spi.U1.addr\[6\] _157_ VGND VGND VPWR VPWR _158_ sky130_fd_sc_hd__nand2_1
XFILLER_0_43_109 VGND VGND VPWR VPWR sky130_fd_sc_hd__decap_3
XFILLER_0_3_217 VGND VGND VPWR VPWR sky130_fd_sc_hd__decap_6
X_257_ raven_spi.U1.addr\[6\] _102_ _103_ VGND VGND VPWR VPWR _104_ sky130_fd_sc_hd__nor3_2
XFILLER_0_27_194 VPWR VGND VPWR VGND sky130_ef_sc_hd__decap_12
XFILLER_0_42_197 VPWR VGND VPWR VGND sky130_ef_sc_hd__decap_12
XFILLER_0_42_153 VPWR VGND VPWR VGND sky130_ef_sc_hd__decap_12
XFILLER_0_2_261 VGND VGND VPWR VPWR sky130_fd_sc_hd__fill_1
XFILLER_0_18_183 VGND VGND VPWR VPWR sky130_fd_sc_hd__decap_3
X_309_ _142_ _143_ VGND VGND VPWR VPWR _088_ sky130_fd_sc_hd__nand2_1
XFILLER_0_34_6 VPWR VGND VPWR VGND sky130_ef_sc_hd__decap_12
XFILLER_0_30_101 VGND VGND VPWR VPWR sky130_fd_sc_hd__fill_2
XFILLER_0_30_123 VGND VGND VPWR VPWR sky130_fd_sc_hd__decap_3
XFILLER_0_38_245 VGND VGND VPWR VPWR sky130_fd_sc_hd__decap_6
XFILLER_0_21_134 VPWR VGND VPWR VGND sky130_ef_sc_hd__decap_12
XFILLER_0_16_65 VPWR VGND VPWR VGND sky130_ef_sc_hd__decap_12
XFILLER_0_29_201 VGND VGND VPWR VPWR sky130_fd_sc_hd__decap_4
XFILLER_0_12_156 VGND VGND VPWR VPWR sky130_fd_sc_hd__decap_8
XFILLER_0_32_3 VPWR VGND VPWR VGND sky130_ef_sc_hd__decap_12
XFILLER_0_35_237 VPWR VGND VPWR VGND sky130_ef_sc_hd__decap_12
XFILLER_0_26_226 VPWR VGND VPWR VGND sky130_ef_sc_hd__decap_12
XTAP_126 VGND VPWR sky130_fd_sc_hd__tapvpwrvgnd_1
XTAP_115 VGND VPWR sky130_fd_sc_hd__tapvpwrvgnd_1
XTAP_104 VGND VPWR sky130_fd_sc_hd__tapvpwrvgnd_1
XTAP_137 VGND VPWR sky130_fd_sc_hd__tapvpwrvgnd_1
XTAP_148 VGND VPWR sky130_fd_sc_hd__tapvpwrvgnd_1
XTAP_159 VGND VPWR sky130_fd_sc_hd__tapvpwrvgnd_1
XFILLER_0_27_31 VGND VGND VPWR VPWR sky130_fd_sc_hd__fill_1
XFILLER_0_43_85 VPWR VGND VPWR VGND sky130_ef_sc_hd__decap_12
XFILLER_0_43_41 VPWR VGND VPWR VGND sky130_ef_sc_hd__decap_12
XFILLER_0_17_237 VPWR VGND VPWR VGND sky130_ef_sc_hd__decap_12
XFILLER_0_40_251 VGND VGND VPWR VPWR sky130_fd_sc_hd__fill_1
XFILLER_0_4_197 VPWR VGND VPWR VGND sky130_ef_sc_hd__decap_12
XFILLER_0_4_186 VGND VGND VPWR VPWR sky130_fd_sc_hd__decap_8
X_290_ raven_spi.pll_trim\[1\] raven_spi.U1.odata\[5\] _122_ VGND VGND VPWR VPWR _129_
+ sky130_fd_sc_hd__mux2_1
XFILLER_0_13_55 VGND VGND VPWR VPWR sky130_fd_sc_hd__fill_1
X_488_ _252_ VGND VGND VPWR VPWR _037_ sky130_fd_sc_hd__inv_2
XFILLER_0_13_88 VGND VGND VPWR VPWR sky130_fd_sc_hd__decap_6
XFILLER_0_22_251 VGND VGND VPWR VPWR sky130_fd_sc_hd__fill_1
XFILLER_0_38_85 VPWR VGND VPWR VGND sky130_ef_sc_hd__decap_12
XFILLER_0_38_41 VPWR VGND VPWR VGND sky130_ef_sc_hd__decap_12
XFILLER_0_9_201 VGND VGND VPWR VPWR sky130_fd_sc_hd__fill_2
X_411_ _218_ _111_ _115_ VGND VGND VPWR VPWR _219_ sky130_fd_sc_hd__a21o_1
X_342_ raven_spi.U1.addr\[1\] raven_spi.U1.addr\[0\] raven_spi.U1.addr\[2\] VGND VGND
+ VPWR VPWR _170_ sky130_fd_sc_hd__a21o_1
X_273_ _108_ _110_ VGND VGND VPWR VPWR _118_ sky130_fd_sc_hd__nor2_1
XFILLER_0_39_181 VPWR VGND VPWR VGND sky130_ef_sc_hd__decap_12
XFILLER_0_40_53 VPWR VGND VPWR VGND sky130_ef_sc_hd__decap_12
XFILLER_0_40_97 VPWR VGND VPWR VGND sky130_ef_sc_hd__decap_12
XFILLER_0_10_210 VPWR VGND VPWR VGND sky130_ef_sc_hd__decap_12
XFILLER_0_4_97 VPWR VGND VPWR VGND sky130_ef_sc_hd__decap_12
XFILLER_0_4_53 VPWR VGND VPWR VGND sky130_ef_sc_hd__decap_12
X_325_ _140_ _134_ VGND VGND VPWR VPWR _157_ sky130_fd_sc_hd__nand2_1
X_256_ raven_spi.U1.addr\[3\] _101_ raven_spi.U1.addr\[5\] raven_spi.U1.addr\[4\]
+ VGND VGND VPWR VPWR _103_ sky130_fd_sc_hd__a211o_1
XFILLER_0_36_195 VGND VGND VPWR VPWR sky130_fd_sc_hd__fill_1
XFILLER_0_19_129 VGND VGND VPWR VPWR sky130_fd_sc_hd__fill_1
XFILLER_0_42_165 VPWR VGND VPWR VGND sky130_ef_sc_hd__decap_12
XFILLER_0_2_251 VGND VGND VPWR VPWR sky130_fd_sc_hd__fill_1
XFILLER_0_18_195 VGND VGND VPWR VPWR sky130_fd_sc_hd__fill_1
XFILLER_0_33_132 VGND VGND VPWR VPWR sky130_fd_sc_hd__decap_8
XFILLER_0_21_55 VGND VGND VPWR VPWR sky130_fd_sc_hd__fill_1
XFILLER_0_24_121 VGND VGND VPWR VPWR sky130_fd_sc_hd__fill_2
X_308_ raven_spi.U1.count\[1\] _141_ VGND VGND VPWR VPWR _143_ sky130_fd_sc_hd__or2_1
XFILLER_0_15_110 VGND VGND VPWR VPWR sky130_fd_sc_hd__fill_2
XFILLER_0_21_146 VPWR VGND VPWR VGND sky130_ef_sc_hd__decap_12
XFILLER_0_16_77 VGND VGND VPWR VPWR sky130_fd_sc_hd__decap_6
XFILLER_0_25_3 VPWR VGND VPWR VGND sky130_ef_sc_hd__decap_12
XFILLER_0_35_249 VPWR VGND VPWR VGND sky130_ef_sc_hd__decap_12
XFILLER_0_26_238 VPWR VGND VPWR VGND sky130_ef_sc_hd__decap_12
XTAP_127 VGND VPWR sky130_fd_sc_hd__tapvpwrvgnd_1
XTAP_116 VGND VPWR sky130_fd_sc_hd__tapvpwrvgnd_1
XTAP_105 VGND VPWR sky130_fd_sc_hd__tapvpwrvgnd_1
XTAP_138 VGND VPWR sky130_fd_sc_hd__tapvpwrvgnd_1
XTAP_149 VGND VPWR sky130_fd_sc_hd__tapvpwrvgnd_1
XFILLER_0_43_97 VPWR VGND VPWR VGND sky130_ef_sc_hd__decap_12
XFILLER_0_43_53 VGND VGND VPWR VPWR sky130_fd_sc_hd__decap_3
XFILLER_0_17_249 VPWR VGND VPWR VGND sky130_ef_sc_hd__decap_12
XFILLER_0_7_53 VGND VGND VPWR VPWR sky130_fd_sc_hd__decap_3
X_487_ _252_ VGND VGND VPWR VPWR _036_ sky130_fd_sc_hd__inv_2
XFILLER_0_1_113 VGND VGND VPWR VPWR sky130_fd_sc_hd__decap_8
XFILLER_0_38_97 VPWR VGND VPWR VGND sky130_ef_sc_hd__decap_12
XFILLER_0_38_53 VPWR VGND VPWR VGND sky130_ef_sc_hd__decap_12
X_272_ _117_ VGND VGND VPWR VPWR _099_ sky130_fd_sc_hd__clkbuf_1
X_410_ raven_spi.irq VGND VGND VPWR VPWR _218_ sky130_fd_sc_hd__inv_2
X_341_ _169_ VGND VGND VPWR VPWR _082_ sky130_fd_sc_hd__clkbuf_1
XFILLER_0_39_193 VPWR VGND VPWR VGND sky130_ef_sc_hd__decap_12
XFILLER_0_40_65 VPWR VGND VPWR VGND sky130_ef_sc_hd__decap_12
XFILLER_0_24_77 VGND VGND VPWR VPWR sky130_fd_sc_hd__fill_1
X_539_ net16 _085_ _042_ VGND VGND VPWR VPWR raven_spi.U1.addr\[6\] sky130_fd_sc_hd__dfrtp_1
XFILLER_0_10_222 VPWR VGND VPWR VGND sky130_ef_sc_hd__decap_12
XFILLER_0_4_65 VGND VGND VPWR VPWR sky130_fd_sc_hd__decap_8
X_255_ _101_ raven_spi.U1.addr\[7\] VGND VGND VPWR VPWR _102_ sky130_fd_sc_hd__and2b_1
X_324_ raven_spi.U1.addr\[7\] _149_ _156_ VGND VGND VPWR VPWR _086_ sky130_fd_sc_hd__a21o_1
XFILLER_0_36_141 VGND VGND VPWR VPWR sky130_fd_sc_hd__fill_2
XFILLER_0_10_79 VGND VGND VPWR VPWR sky130_fd_sc_hd__decap_4
XFILLER_0_19_66 VPWR VGND VPWR VGND sky130_ef_sc_hd__decap_12
XFILLER_0_42_177 VPWR VGND VPWR VGND sky130_ef_sc_hd__decap_12
XFILLER_0_27_163 VGND VGND VPWR VPWR sky130_fd_sc_hd__fill_1
XFILLER_0_33_166 VGND VGND VPWR VPWR sky130_fd_sc_hd__fill_2
XFILLER_0_24_177 VPWR VGND VPWR VGND sky130_ef_sc_hd__decap_12
X_307_ _139_ _142_ VGND VGND VPWR VPWR _089_ sky130_fd_sc_hd__xnor2_1
XFILLER_0_1_55 VGND VGND VPWR VPWR sky130_fd_sc_hd__fill_1
XFILLER_0_21_158 VGND VGND VPWR VPWR sky130_fd_sc_hd__decap_8
XFILLER_0_21_169 VPWR VGND VPWR VGND sky130_ef_sc_hd__decap_12
XFILLER_0_18_3 VPWR VGND VPWR VGND sky130_ef_sc_hd__decap_12
XFILLER_0_43_261 VGND VGND VPWR VPWR sky130_fd_sc_hd__fill_1
XFILLER_0_34_261 VGND VGND VPWR VPWR sky130_fd_sc_hd__fill_1
XTAP_128 VGND VPWR sky130_fd_sc_hd__tapvpwrvgnd_1
XTAP_117 VGND VPWR sky130_fd_sc_hd__tapvpwrvgnd_1
XTAP_106 VGND VPWR sky130_fd_sc_hd__tapvpwrvgnd_1
XTAP_139 VGND VPWR sky130_fd_sc_hd__tapvpwrvgnd_1
XPHY_0 VGND VGND VPWR VPWR sky130_fd_sc_hd__decap_3
XFILLER_0_27_55 VGND VGND VPWR VPWR sky130_fd_sc_hd__fill_1
XFILLER_0_27_77 VGND VGND VPWR VPWR sky130_fd_sc_hd__fill_1
XFILLER_0_25_261 VGND VGND VPWR VPWR sky130_fd_sc_hd__fill_1
XFILLER_0_40_253 VGND VGND VPWR VPWR sky130_fd_sc_hd__decap_6
XFILLER_0_7_43 VGND VGND VPWR VPWR sky130_fd_sc_hd__fill_1
XFILLER_0_16_261 VGND VGND VPWR VPWR sky130_fd_sc_hd__fill_1
XFILLER_0_7_3 VPWR VGND VPWR VGND sky130_ef_sc_hd__decap_12
XFILLER_0_13_57 VGND VGND VPWR VPWR sky130_fd_sc_hd__decap_4
XFILLER_0_14_209 VPWR VGND VPWR VGND sky130_ef_sc_hd__decap_12
X_486_ _253_ VGND VGND VPWR VPWR _035_ sky130_fd_sc_hd__inv_2
XFILLER_0_1_169 VPWR VGND VPWR VGND sky130_ef_sc_hd__decap_12
XFILLER_0_22_253 VGND VGND VPWR VPWR sky130_fd_sc_hd__decap_8
XFILLER_0_38_65 VPWR VGND VPWR VGND sky130_ef_sc_hd__decap_12
XFILLER_0_9_225 VPWR VGND VPWR VGND sky130_ef_sc_hd__decap_12
X_271_ net4 raven_spi.pll_bypass _116_ VGND VGND VPWR VPWR _117_ sky130_fd_sc_hd__mux2_1
X_340_ _168_ raven_spi.U1.addr\[3\] _149_ VGND VGND VPWR VPWR _169_ sky130_fd_sc_hd__mux2_1
XFILLER_0_39_161 VGND VGND VPWR VPWR sky130_fd_sc_hd__decap_6
X_538_ net15 _084_ _041_ VGND VGND VPWR VPWR raven_spi.U1.addr\[5\] sky130_fd_sc_hd__dfrtp_1
XFILLER_0_40_77 VGND VGND VPWR VPWR sky130_fd_sc_hd__decap_6
X_469_ _251_ VGND VGND VPWR VPWR _012_ sky130_fd_sc_hd__inv_2
XFILLER_0_10_234 VPWR VGND VPWR VGND sky130_ef_sc_hd__decap_12
XFILLER_0_5_261 VGND VGND VPWR VPWR sky130_fd_sc_hd__fill_1
X_254_ raven_spi.U1.state\[2\] VGND VGND VPWR VPWR _101_ sky130_fd_sc_hd__buf_2
X_323_ raven_spi.U1.addr\[6\] _102_ _154_ _140_ _155_ VGND VGND VPWR VPWR _156_ sky130_fd_sc_hd__o221a_1
XFILLER_0_36_153 VPWR VGND VPWR VGND sky130_ef_sc_hd__decap_12
XFILLER_0_36_197 VPWR VGND VPWR VGND sky130_ef_sc_hd__decap_12
XFILLER_0_19_78 VPWR VGND VPWR VGND sky130_ef_sc_hd__decap_12
XFILLER_0_35_55 VGND VGND VPWR VPWR sky130_fd_sc_hd__fill_1
XFILLER_0_27_131 VPWR VGND VPWR VGND sky130_ef_sc_hd__decap_12
XFILLER_0_42_189 VGND VGND VPWR VPWR sky130_fd_sc_hd__decap_6
XFILLER_0_42_101 VGND VGND VPWR VPWR sky130_fd_sc_hd__fill_1
XFILLER_0_2_253 VGND VGND VPWR VPWR sky130_fd_sc_hd__decap_8
XFILLER_0_27_175 VGND VGND VPWR VPWR sky130_fd_sc_hd__fill_1
XFILLER_0_18_120 VGND VGND VPWR VPWR sky130_fd_sc_hd__decap_3
XFILLER_0_33_123 VGND VGND VPWR VPWR sky130_fd_sc_hd__decap_6
X_306_ raven_spi.U1.count\[1\] _141_ VGND VGND VPWR VPWR _142_ sky130_fd_sc_hd__nand2_1
XFILLER_0_21_57 VPWR VGND VPWR VGND sky130_ef_sc_hd__decap_12
XFILLER_0_24_112 VGND VGND VPWR VPWR sky130_fd_sc_hd__decap_3
XFILLER_0_24_189 VGND VGND VPWR VPWR sky130_fd_sc_hd__decap_6
XFILLER_0_1_89 VGND VGND VPWR VPWR sky130_fd_sc_hd__decap_3
XFILLER_0_43_251 VGND VGND VPWR VPWR sky130_fd_sc_hd__fill_1
XFILLER_0_11_181 VPWR VGND VPWR VGND sky130_ef_sc_hd__decap_12
XFILLER_0_34_251 VGND VGND VPWR VPWR sky130_fd_sc_hd__fill_1
XTAP_129 VGND VPWR sky130_fd_sc_hd__tapvpwrvgnd_1
XTAP_118 VGND VPWR sky130_fd_sc_hd__tapvpwrvgnd_1
XTAP_107 VGND VPWR sky130_fd_sc_hd__tapvpwrvgnd_1
XFILLER_0_27_45 VGND VGND VPWR VPWR sky130_fd_sc_hd__fill_1
XPHY_1 VGND VGND VPWR VPWR sky130_fd_sc_hd__decap_3